parte-1/casos/case24acad/PTOPER_DAT_019.PWF
TITU                                                                                                                                                  
****   Sistema teste de 24 barras - IEEE  ****                                                                                                        
DCTE                                                                                                                                                  
BASE 100.00 DASE   6264 TEPA 0.1000 EXST 0.4000 TETP 5.0000 TBPA 5.0000                                                                               
TLPP 1.0000 TEPR 0.1000 QLST 0.4000 TLPR 1.0000 TSBZ 0.0100                                                                                           
TSBA 5.0000 ASTP 0.0500 VSTP 5.0000 TLVC 0.1000 TLTC 0.1000 TSFR 0.0100                                                                               
ZMAX 500.00 VDVM 150.00 VDVN 01.000 TUDC 0.0100 TADC 0.0100                                                                                           
PGER 30.000 TPST 500.00 LFIT     10 ACIT     30 LFCV      3                                                                                           
DCIT     10 VSIT     10 LPIT     50 LFLP     10 LCRT     32                                                                                           
99999                                                                                                                                                 
(                                                                                                                                                     
(=======================================================================                                                                              
( DADOS DE BARRAS CA                                                                                                                                  
(=======================================================================                                                                              
DBAR                                                                                                                                                  
(Num)OETGb(   nome   )Gl( V)( A)( Pg)( Qg)( Qn)( Qm)(Bc  )( Pl)( Ql)( Sh)Are(Vf)M(1)(2)(3)(4)(5)(6)Sub                                                
    1  1G     BARRA01 1 1030   0130.6  0.0-50.0 80.0      165.5 22.0      01                       1                                                  
    2  1G     BARRA02 1 1030   0387.3  0.0-50.0 80.0      148.7 20.0      01                       1                                                  
    3  0G     BARRA03 0 1000   0200.0  0.0  0.0  0.0      275.9 37.0      01                       1                                                  
    4  0G     BARRA04 0 1000   073.97  0.0  0.0  0.0      113.4 15.0      01                       1                                                  
    5  0G     BARRA05 0 1000   0103.8  0.0  0.0  0.0      108.8 14.0      01                       1                                                  
    6  0G     BARRA06 0 1000   0       0.0  0.0  0.0      208.5 28.0      01                       1                                                  
    7  1G     BARRA07 1 1030   0250.0  0.0  0.0160.0      191.6 25.0      01                       1                                                  
    8  0G     BARRA08 0 1000   0       0.0  0.0  0.0      262.0 35.0      01                       1                                                  
    9  0G     BARRA09 0 1000   0       0.0  0.0  0.0      268.2 36.0      01                       1                                                  
   10  0G     BARRA10 0 1000   0       0.0  0.0  0.0      298.9 40.0      01                       1                                                  
   11  0G     BARRA11 0 1000   0       0.0  0.0  0.0             0.0      01                       1                                                  
   12  0G     BARRA12 0 1000   0       0.0  0.0  0.0             0.0      01                       1                                                  
   13  2G     BARRA13 1 1000   0883.2  0.0  0.0240.0      401.0 54.0      02                       1                                                  
   14  1G     BARRA14 1 1020   0220.0  0.0-50.0200.0      602.3 39.0      02                       2                                                  
   15  1G     BARRA15 1 1000   0936.9  0.0-50.0110.0      983.8 64.0      02                       2                                                  
   16  1G     BARRA16 1 1010   0397.6  0.0-50.0 80.0      310.5 20.0      02                       2                                                  
   17  0G     BARRA17 0 1000   0       0.0  0.0  0.0             0.0      02                       2                                                  
   18  1G     BARRA18 1 1020   01033.  0.0-50.0200.0      1034. 68.0      02                       2                                                  
   19  0G     BARRA19 0 1000   0       0.0  0.0  0.0      561.9 37.0      02                       2                                                  
   20  0G     BARRA20 0 1000   0       0.0  0.0  0.0      397.4 26.0      02                       2                                                  
   21  1G     BARRA21 1 1030   0400.0  0.0-50.0200.0             0.0      02                       2                                                  
   22  1G     BARRA22 1 1050   0461.1  0.0-60.0 96.0             0.0      02                       2                                                  
   23  1G     BARRA23 1 1020   0855.0  0.0 -125310.0             0.0      02                       2                                                  
   24  0G     BARRA24 0 1000   0       0.0  0.0  0.0             0.0      02                       2                                                  
99999                                                                                                                                                 
(=======================================================================                                                                              
( DADOS DE CIRCUITOS CA                                                                                                                               
(=======================================================================                                                                              
DLIN                                                                                                                                                  
(De )d O d(Pa )NcEP ( R% )( X% )(Mvar)(Tap)(Tmn)(Tmx)(Phs)(Bc  )(Cn)(Ce)Ns(Cq)(1)(2)(3)(4)(5)(6)                                                      
    1         2 1   0.26001.3900 46.11                          400                                                                                   
    1         3 1   5.460021.120  5.72                          400                                                                                   
    1         5 1   2.1800 8.450  2.29                          400                                                                                   
    2         4 1   3.280012.670  3.43                          400                                                                                   
    2         6 1   4.970019.200  5.20                          400                                                                                   
    3         9 1   3.080011.900  3.22                          400                                                                                   
    3        24 1   0.2300 8.390  0.00  1.0  0.8  1.1           400                                                                                   
    4         9 1   2.680010.370  2.81                          400                                                                                   
    5        10 1   2.2800 8.830  2.39                          400                                                                                   
    6        10 1   1.3900 6.050 245.9                          400                                                                                   
    7         8 1   1.5900 6.140  1.66                          400                                                                                   
    8         9 1   4.270016.510  4.47                          400                                                                                   
    8        10 1   4.270016.510  4.47                          400                                                                                   
    9        11 1   0.2300 8.390  0.00  1.0  0.8  1.1           400                                                                                   
    9        12 1   0.2300 8.390  0.00  1.0  0.8  1.1           400                                                                                   
   10        11 1   0.2300 8.390  0.00  1.0  0.8  1.1           400                                                                                   
   10        12 1   0.2300 8.390  0.00  1.0  0.8  1.1           400                                                                                   
   11        13 1   0.6100 4.760  9.99                          400                                                                                   
   11        14 1   0.5400 4.180  8.79                          400                                                                                   
   12        13 1   0.6100 4.760  9.99                          400                                                                                   
   12        23 1   1.2400 9.660 20.30                          400                                                                                   
   13        23 1   1.1100 8.650 18.18                          400                                                                                   
   14        16 1   0.5000 3.890  8.18                          400                                                                                   
   15        16 1   0.2200 1.730  3.64                          400                                                                                   
   15        21 1   0.6300 4.900 10.30                          400                                                                                   
   15        21 2   0.6300 4.900 10.30                          400                                                                                   
   15        24 1   0.6700 5.190 10.91                          400                                                                                   
   16        17 1   0.3300 2.590  5.45                          400                                                                                   
   16        19 1   0.3000 2.310  4.85                          400                                                                                   
   17        18 1   0.1800 1.440  3.03                          400                                                                                   
   17        22 1   1.350010.530 22.12                          400                                                                                   
   18        21 1   0.3300 2.590  5.45                          400                                                                                   
   18        21 2   0.3300 2.590  5.45                          400                                                                                   
   19        20 1   0.5100 3.960  8.33                          400                                                                                   
   19        20 2   0.5100 3.960  8.33                          400                                                                                   
   20        23 1   0.2800 2.160  4.55                          400                                                                                   
   20        23 2   0.2800 2.160  4.55                          400                                                                                   
   21        22 1   0.8700 6.780 14.24                          400                                                                                   
99999                                                                                                                                                 
(                                                                                                                                                     
(=======================================================================                                                                              
( AREAS                                                                                                                                               
(=======================================================================                                                                              
DARE                                                                                                                                                  
(Ar    (Xchg)     (      Identificacao da area       ) (Xmin) (Xmax)                                                                                  
  1        0.     *              AREA1               *                1                                                                               
  2        0.     *              AREA2               *                2                                                                               
99999                                                                                                                                                 
(=======================================================================                                                                              
( DGLT                                                                                                                                                
(=======================================================================                                                                              
DGLT                                                                                                                                                  
(G (Vmn) (Vmx)                                                                                                                                        
 0  .950 1.050                                                                                                                                        
99999                                                                                                                                                 
DGBT                                                                                                                                                  
(G ( kV)                                                                                                                                              
 G    1.                                                                                                                                              
99999                                                                                                                                                 
(=======================================================================                                                                              
( UNIDADES GERADORAS CONECTADAS A REDE                                                                                                                
(=======================================================================                                                                              
FIM                                                                                                                                                   
